  Page 1                                    Fri Apr 17 11:47:37 2020

  ******************************************************************
  *                           E P A N E T                          *
  *                   Hydraulic and Water Quality                  *
  *                   Analysis for Pipe Networks                   *
  *                         Version 2.1                            *
  ******************************************************************
  
  Analysis begun Fri Apr 17 11:47:37 2020

  Analysis ended Fri Apr 17 11:47:37 2020
