  Page 1                                    Thu Apr 16 17:16:34 2020

  ******************************************************************
  *                           E P A N E T                          *
  *                   Hydraulic and Water Quality                  *
  *                   Analysis for Pipe Networks                   *
  *                         Version 2.1                            *
  ******************************************************************
  
  Analysis begun Thu Apr 16 17:16:34 2020

  Analysis ended Thu Apr 16 17:16:34 2020
